<nodes>

    <node id="01" x="-200" y="0"/>
    <node id="11" x="0.0" y="0" />
    <node id="21" x="200" y="0"/>
    <node id="12" x="0" y="-200"/>
    <node id="10" x="0" y="200"/>

</nodes>