<edges>

    <edge id="01E" from="01" to="11" numLanes="2" speed="20" />
    <edge id="11E" from="11" to="21" numLanes="2" speed="20" />
    <edge id="21W" from="21" to="11" numLanes="2" speed="20" />
    <edge id="11W" from="11" to="01" numLanes="2" speed="20" />
    <edge id="10S" from="10" to="11" numLanes="2" speed="20" />
    <edge id="11S" from="11" to="12" numLanes="2" speed="20" />
    <edge id="12N" from="12" to="11" numLanes="2" speed="20" />
    <edge id="11N" from="11" to="10" numLanes="2" speed="20" />

</edges>