<routes>

    <vType accel="1000000" decel="1000000" id="Car" sigma="0.0" maxSpeed="20" minGap="0"/>
    <vType accel="1000000" decel="1000000" id="Cara" sigma="0.0" maxSpeed="20" minGap="0"/>
    <vType accel="1000000" decel="1000000" id="Car1" sigma="0.0" maxSpeed="20" minGap="0"/>
    <vType accel="1000000" decel="1000000" id="Car1a" sigma="0.0" maxSpeed="20" minGap="0"/>
    <vType accel="1000000" decel="1000000" id="Car2" sigma="0.0" maxSpeed="20" minGap="0"/>
    <vType accel="1000000" decel="1000000" id="Car2a" sigma="0.0" maxSpeed="20" minGap="0"/>
    <vType accel="1000000" decel="1000000" id="Car3" sigma="0.0" maxSpeed="20" minGap="0"/>
    <vType accel="1000000" decel="1000000" id="Car3a" sigma="0.0" maxSpeed="20" minGap="0"/>

    <vehicle id="Car" depart="0">
        <route edges="01E 11E"/>
    </vehicle>
    <vehicle id="Cara" depart="0">
        <route edges="01E 11E"/>
    </vehicle>
    <vehicle id="Car1" depart="0">
        <route edges="21W 11W"/>
    </vehicle>
    <vehicle id="Car1a" depart="0">
        <route edges="21W 11W"/>
    </vehicle>
    <vehicle id="Car2" depart="0">
        <route edges="10S 11S"/>
    </vehicle>
    <vehicle id="Car2a" depart="0">
        <route edges="10S 11S"/>
    </vehicle>
    <vehicle id="Car3" depart="0">
        <route edges="12N 11N"/>
    </vehicle>
    <vehicle id="Car3a" depart="0">
        <route edges="12N 11N"/>
    </vehicle>

</routes>
