<?xml version="1.0" encoding="UTF-8"?>

<configuration xmlns:xsi="http://www.w3.org/2001/XMLSchema-instance" 
xsi:noNamespaceSchemaLocation="http://sumo.dlr.de/xsd/duarouterConfiguration.xsd">

    <input>
        <net-file value="sumomain.net.xml"/>
        <additional-files value="parking.add.xml"/>
        <route-files value="sumomain.rou.xml"/>
    </input>

    <time>
        <begin value="0"/>
        <end value="30"/>
    </time>

    <output>
        <tripinfo-output value="CreditPolicyRandom3Trip" />
    </output>

</configuration>