<routes>

    <vType accel="1000000" decel="1000000" id="Car" sigma="0.0" maxSpeed="20" minGap="0"/>
    <vType accel="1000000" decel="1000000" id="Cara" sigma="0.0" maxSpeed="20" minGap="0"/>
    <vType accel="1000000" decel="1000000" id="Car1" sigma="0.0" maxSpeed="20" minGap="0"/>
    <vType accel="1000000" decel="1000000" id="Car1a" sigma="0.0" maxSpeed="20" minGap="0"/>
    <vType accel="1000000" decel="1000000" id="Car2" sigma="0.0" maxSpeed="20" minGap="0"/>
    <vType accel="1000000" decel="1000000" id="Car2a" sigma="0.0" maxSpeed="20" minGap="0"/>
    <vType accel="1000000" decel="1000000" id="Car3" sigma="0.0" maxSpeed="20" minGap="0"/>
    <vType accel="1000000" decel="1000000" id="Car3a" sigma="0.0" maxSpeed="20" minGap="0"/>

    <route edges="01E 11E 21W 11W" id="E" repeat="2"/>
    <route edges="21W 11W 01E 11E" id="W" repeat="2"/>
    <route edges="10S 11S 12N 11N" id="S" repeat="2"/>
    <route edges="12N 11N 10S 11S" id="N" repeat="2"/>
    <route edges="11E 21W" id="EUW"/>
    <route edges="11W 01E" id="WUE"/>
    <route edges="11N 10S" id="NUS"/>
    <route edges="11S 12N" id="SUN"/>

    <vehicle id="Car" depart="0" route="E" departLane="0">
<!--         <stop parkingArea="ParkAreaE" duration="20"/>-->
    </vehicle>
    <vehicle id="Cara" depart="0" route="E" departLane="1">
<!--         <stop parkingArea="ParkAreaE" duration="20"/>-->
    </vehicle>
    <vehicle id="Car1" depart="0" route="W" departLane="0">
<!--         <stop parkingArea="ParkAreaW" duration="20"/>-->
    </vehicle>
    <vehicle id="Car1a" depart="0" route="W" departLane="1">
<!--         <stop parkingArea="ParkAreaW" duration="20"/>-->
    </vehicle>
    <vehicle id="Car2" depart="0" route="S" departLane="0">
<!--         <stop parkingArea="ParkAreaS" duration="20"/>-->
    </vehicle>
    <vehicle id="Car2a" depart="0" route="S" departLane="1">
<!--         <stop parkingArea="ParkAreaS" duration="20"/>-->
    </vehicle>
    <vehicle id="Car3" depart="0" route="N" departLane="0">
<!--         <stop parkingArea="ParkAreaN" duration="20"/>-->
    </vehicle>
    <vehicle id="Car3a" depart="0" route="N" departLane="1">
<!--         <stop parkingArea="ParkAreaN" duration="20"/>-->
    </vehicle>

</routes>
