<routes>

    <vType accel="1000000000" decel="1000000000" id="Car" maxSpeed="20" />
    <vType accel="1000000000" decel="1000000000" id="Cara" maxSpeed="20" />
    <vType accel="1000000000" decel="1000000000" id="Car1" maxSpeed="20" />
    <vType accel="1000000000" decel="1000000000" id="Car1a" maxSpeed="20"/>
    <vType accel="1000000000" decel="1000000000" id="Car2" maxSpeed="20" />
    <vType accel="1000000000" decel="1000000000" id="Car2a" maxSpeed="20" />
    <vType accel="1000000000" decel="1000000000" id="Car3" maxSpeed="20" />
    <vType accel="1000000000" decel="1000000000" id="Car3a" maxSpeed="20"/>

    <route edges="01E 11E 21W 11W" id="E" repeat="2"/>
    <route edges="21W 11W 01E 11E" id="W" repeat="2"/>
    <route edges="10S 11S 12N 11N" id="S" repeat="2"/>
    <route edges="12N 11N 10S 11S" id="N" repeat="2"/>

    <vehicle id="Car" depart="0" route="E">
    </vehicle>
    <vehicle id="Cara" depart="0" route="E">
    </vehicle>
    <vehicle id="Car1" depart="0" route="W">
    </vehicle>
    <vehicle id="Car1a" depart="0" route="W">
    </vehicle>
    <vehicle id="Car2" depart="0" route="S">
    </vehicle>
    <vehicle id="Car2a" depart="0" route="S">
    </vehicle>
    <vehicle id="Car3" depart="0" route="N">
    </vehicle>
    <vehicle id="Car3a" depart="0" route="N">
    </vehicle>

</routes>
